<configuration>
    <input>
       <net-file value="ring_network.net.xml"/>
       <route-files value="ring.rou.xml"/>
       <gui-settings-file value="ring.settings.xml"/>
	<additional-files value="ring.add.xml"/>
    </input>
</configuration>